Base Experiment/EuropeanTestLines.dss
New  Line.LINE1	Phases=3	Bus1=1.1.2.3	Bus2=2.1.2.3	LineCode=4c_70 		Length=1.0980	Units=m
New  Line.LINE2	Phases=3	Bus1=2.1.2.3	Bus2=3.1.2.3	LineCode=4c_70 		Length=0.1151	Units=m
New  Line.LINE3	Phases=3	Bus1=3.1.2.3	Bus2=4.1.2.3	LineCode=4c_70 		Length=0.1078	Units=m
New  Line.LINE4	Phases=3	Bus1=4.1.2.3	Bus2=5.1.2.3	LineCode=4c_70 		Length=0.0940	Units=m
New  Line.LINE5	Phases=3	Bus1=5.1.2.3	Bus2=6.1.2.3	LineCode=4c_70 		Length=0.1481	Units=m
New  Line.LINE6	Phases=3	Bus1=6.1.2.3	Bus2=7.1.2.3	LineCode=4c_70 		Length=10.0863	Units=m
New  Line.LINE7	Phases=3	Bus1=7.1.2.3	Bus2=8.1.2.3	LineCode=4c_70 		Length=0.4517	Units=m
New  Line.LINE8	Phases=3	Bus1=8.1.2.3	Bus2=9.1.2.3	LineCode=4c_70 		Length=0.3760	Units=m
New  Line.LINE9	Phases=3	Bus1=9.1.2.3	Bus2=10.1.2.3	LineCode=4c_70 		Length=0.3300	Units=m
New  Line.LINE10	Phases=3	Bus1=10.1.2.3	Bus2=11.1.2.3	LineCode=4c_70 		Length=0.2462	Units=m
New  Line.LINE11	Phases=3	Bus1=11.1.2.3	Bus2=12.1.2.3	LineCode=4c_70 		Length=0.2311	Units=m
New  Line.LINE12	Phases=3	Bus1=12.1.2.3	Bus2=13.1.2.3	LineCode=4c_70 		Length=0.1421	Units=m
New  Line.LINE13	Phases=3	Bus1=13.1.2.3	Bus2=14.1.2.3	LineCode=4c_70 		Length=0.3538	Units=m
New  Line.LINE14	Phases=3	Bus1=14.1.2.3	Bus2=15.1.2.3	LineCode=4c_70 		Length=2.8664	Units=m
New  Line.LINE15	Phases=3	Bus1=15.1.2.3	Bus2=16.1.2.3	LineCode=2c_007 		Length=0.0965	Units=m
New  Line.LINE16	Phases=3	Bus1=15.1.2.3	Bus2=17.1.2.3	LineCode=4c_70 		Length=3.4760	Units=m
New  Line.LINE17	Phases=3	Bus1=16.1.2.3	Bus2=18.1.2.3	LineCode=2c_007 		Length=0.0440	Units=m
New  Line.LINE18	Phases=3	Bus1=17.1.2.3	Bus2=19.1.2.3	LineCode=4c_70 		Length=0.2392	Units=m
New  Line.LINE19	Phases=3	Bus1=18.1.2.3	Bus2=20.1.2.3	LineCode=2c_007 		Length=0.0462	Units=m
New  Line.LINE20	Phases=3	Bus1=19.1.2.3	Bus2=21.1.2.3	LineCode=4c_70 		Length=0.2686	Units=m
New  Line.LINE21	Phases=3	Bus1=20.1.2.3	Bus2=22.1.2.3	LineCode=2c_007 		Length=0.0420	Units=m
New  Line.LINE22	Phases=3	Bus1=21.1.2.3	Bus2=23.1.2.3	LineCode=4c_70 		Length=0.4373	Units=m
New  Line.LINE23	Phases=3	Bus1=22.1.2.3	Bus2=24.1.2.3	LineCode=2c_007 		Length=0.0512	Units=m
New  Line.LINE24	Phases=3	Bus1=23.1.2.3	Bus2=25.1.2.3	LineCode=4c_70 		Length=0.7955	Units=m
New  Line.LINE25	Phases=3	Bus1=24.1.2.3	Bus2=26.1.2.3	LineCode=2c_007 		Length=0.0559	Units=m
New  Line.LINE26	Phases=3	Bus1=25.1.2.3	Bus2=27.1.2.3	LineCode=2c_16 		Length=5.9049	Units=m
New  Line.LINE27	Phases=3	Bus1=25.1.2.3	Bus2=28.1.2.3	LineCode=4c_70 		Length=9.9686	Units=m
New  Line.LINE28	Phases=3	Bus1=26.1.2.3	Bus2=29.1.2.3	LineCode=2c_007 		Length=0.0546	Units=m
New  Line.LINE29	Phases=3	Bus1=27.1.2.3	Bus2=30.1.2.3	LineCode=2c_16 		Length=1.6265	Units=m
New  Line.LINE30	Phases=3	Bus1=27.1.2.3	Bus2=31.1.2.3	LineCode=2c_16 		Length=1.5847	Units=m
New  Line.LINE31	Phases=3	Bus1=28.1.2.3	Bus2=32.1.2.3	LineCode=4c_70 		Length=2.6538	Units=m
New  Line.LINE32	Phases=3	Bus1=29.1.2.3	Bus2=33.1.2.3	LineCode=2c_007 		Length=0.1463	Units=m
New  Line.LINE33	Phases=3	Bus1=30.1.2.3	Bus2=34.1.2.3	LineCode=2c_16 		Length=3.7248	Units=m
New  Line.LINE34	Phases=3	Bus1=31.1.2.3	Bus2=35.1.2.3	LineCode=2c_16 		Length=0.0537	Units=m
New  Line.LINE35	Phases=3	Bus1=32.1.2.3	Bus2=36.1.2.3	LineCode=2c_16 		Length=5.7265	Units=m
New  Line.LINE36	Phases=3	Bus1=32.1.2.3	Bus2=37.1.2.3	LineCode=4c_70 		Length=8.0244	Units=m
New  Line.LINE37	Phases=3	Bus1=33.1.2.3	Bus2=38.1.2.3	LineCode=2c_007 		Length=0.1365	Units=m
New  Line.LINE38	Phases=3	Bus1=35.1.2.3	Bus2=39.1.2.3	LineCode=2c_16 		Length=0.0772	Units=m
New  Line.LINE39	Phases=3	Bus1=36.1.2.3	Bus2=40.1.2.3	LineCode=2c_16 		Length=0.4000	Units=m
New  Line.LINE40	Phases=3	Bus1=36.1.2.3	Bus2=41.1.2.3	LineCode=2c_16 		Length=1.8063	Units=m
New  Line.LINE41	Phases=3	Bus1=37.1.2.3	Bus2=42.1.2.3	LineCode=4c_70 		Length=5.5684	Units=m
New  Line.LINE42	Phases=3	Bus1=37.1.2.3	Bus2=43.1.2.3	LineCode=4c_185 		Length=0.2167	Units=m
New  Line.LINE43	Phases=3	Bus1=38.1.2.3	Bus2=44.1.2.3	LineCode=2c_007 		Length=0.0338	Units=m
New  Line.LINE44	Phases=3	Bus1=39.1.2.3	Bus2=45.1.2.3	LineCode=2c_16 		Length=0.0990	Units=m
New  Line.LINE45	Phases=3	Bus1=40.1.2.3	Bus2=46.1.2.3	LineCode=2c_16 		Length=0.1803	Units=m
New  Line.LINE46	Phases=3	Bus1=41.1.2.3	Bus2=47.1.2.3	LineCode=2c_16 		Length=4.3463	Units=m
New  Line.LINE47	Phases=3	Bus1=42.1.2.3	Bus2=48.1.2.3	LineCode=4c_70 		Length=4.2078	Units=m
New  Line.LINE48	Phases=3	Bus1=43.1.2.3	Bus2=49.1.2.3	LineCode=4c_185 		Length=0.1044	Units=m
New  Line.LINE49	Phases=3	Bus1=44.1.2.3	Bus2=50.1.2.3	LineCode=2c_007 		Length=0.0481	Units=m
New  Line.LINE50	Phases=3	Bus1=45.1.2.3	Bus2=51.1.2.3	LineCode=2c_16 		Length=0.2410	Units=m
New  Line.LINE51	Phases=3	Bus1=46.1.2.3	Bus2=52.1.2.3	LineCode=2c_16 		Length=0.1911	Units=m
New  Line.LINE52	Phases=3	Bus1=48.1.2.3	Bus2=53.1.2.3	LineCode=4c_70 		Length=0.6067	Units=m
New  Line.LINE53	Phases=3	Bus1=48.1.2.3	Bus2=54.1.2.3	LineCode=4c_70 		Length=0.6395	Units=m
New  Line.LINE54	Phases=3	Bus1=49.1.2.3	Bus2=55.1.2.3	LineCode=4c_185 		Length=0.1163	Units=m
New  Line.LINE55	Phases=3	Bus1=50.1.2.3	Bus2=56.1.2.3	LineCode=2c_007 		Length=0.0877	Units=m
New  Line.LINE56	Phases=3	Bus1=51.1.2.3	Bus2=57.1.2.3	LineCode=2c_16 		Length=0.2063	Units=m
New  Line.LINE57	Phases=3	Bus1=52.1.2.3	Bus2=58.1.2.3	LineCode=2c_16 		Length=0.1820	Units=m
New  Line.LINE58	Phases=3	Bus1=53.1.2.3	Bus2=59.1.2.3	LineCode=4c_70 		Length=2.7481	Units=m
New  Line.LINE59	Phases=3	Bus1=54.1.2.3	Bus2=60.1.2.3	LineCode=4c_70 		Length=0.0654	Units=m
New  Line.LINE60	Phases=3	Bus1=55.1.2.3	Bus2=61.1.2.3	LineCode=4c_185 		Length=0.1003	Units=m
New  Line.LINE61	Phases=3	Bus1=56.1.2.3	Bus2=62.1.2.3	LineCode=2c_007 		Length=0.0780	Units=m
New  Line.LINE62	Phases=3	Bus1=57.1.2.3	Bus2=63.1.2.3	LineCode=2c_16 		Length=0.9891	Units=m
New  Line.LINE63	Phases=3	Bus1=58.1.2.3	Bus2=64.1.2.3	LineCode=2c_16 		Length=0.1090	Units=m
New  Line.LINE64	Phases=3	Bus1=59.1.2.3	Bus2=65.1.2.3	LineCode=4c_70 		Length=0.5587	Units=m
New  Line.LINE65	Phases=3	Bus1=59.1.2.3	Bus2=66.1.2.3	LineCode=2c_16 		Length=8.2583	Units=m
New  Line.LINE66	Phases=3	Bus1=60.1.2.3	Bus2=67.1.2.3	LineCode=4c_70 		Length=0.0740	Units=m
New  Line.LINE67	Phases=3	Bus1=61.1.2.3	Bus2=68.1.2.3	LineCode=4c_185 		Length=0.0960	Units=m
New  Line.LINE68	Phases=3	Bus1=62.1.2.3	Bus2=69.1.2.3	LineCode=2c_007 		Length=0.0832	Units=m
New  Line.LINE69	Phases=3	Bus1=63.1.2.3	Bus2=70.1.2.3	LineCode=2c_16 		Length=3.4962	Units=m
New  Line.LINE70	Phases=3	Bus1=64.1.2.3	Bus2=71.1.2.3	LineCode=2c_16 		Length=0.2139	Units=m
New  Line.LINE71	Phases=3	Bus1=65.1.2.3	Bus2=72.1.2.3	LineCode=4c_70 		Length=6.6006	Units=m
New  Line.LINE72	Phases=3	Bus1=66.1.2.3	Bus2=73.1.2.3	LineCode=2c_16 		Length=4.0366	Units=m
New  Line.LINE73	Phases=3	Bus1=66.1.2.3	Bus2=74.1.2.3	LineCode=2c_16 		Length=4.0366	Units=m
New  Line.LINE74	Phases=3	Bus1=67.1.2.3	Bus2=75.1.2.3	LineCode=4c_70 		Length=0.1795	Units=m
New  Line.LINE75	Phases=3	Bus1=68.1.2.3	Bus2=76.1.2.3	LineCode=4c_185 		Length=0.2355	Units=m
New  Line.LINE76	Phases=3	Bus1=69.1.2.3	Bus2=77.1.2.3	LineCode=2c_007 		Length=0.3891	Units=m
New  Line.LINE77	Phases=3	Bus1=71.1.2.3	Bus2=78.1.2.3	LineCode=2c_16 		Length=1.0838	Units=m
New  Line.LINE78	Phases=3	Bus1=72.1.2.3	Bus2=79.1.2.3	LineCode=4c_70 		Length=2.3008	Units=m
New  Line.LINE79	Phases=3	Bus1=75.1.2.3	Bus2=80.1.2.3	LineCode=4c_70 		Length=0.1036	Units=m
New  Line.LINE80	Phases=3	Bus1=76.1.2.3	Bus2=81.1.2.3	LineCode=4c_185 		Length=0.7469	Units=m
New  Line.LINE81	Phases=3	Bus1=77.1.2.3	Bus2=82.1.2.3	LineCode=2c_007 		Length=0.5109	Units=m
New  Line.LINE82	Phases=3	Bus1=78.1.2.3	Bus2=83.1.2.3	LineCode=2c_16 		Length=4.0840	Units=m
New  Line.LINE83	Phases=3	Bus1=79.1.2.3	Bus2=84.1.2.3	LineCode=4c_70 		Length=0.5021	Units=m
New  Line.LINE84	Phases=3	Bus1=80.1.2.3	Bus2=85.1.2.3	LineCode=4c_70 		Length=0.1112	Units=m
New  Line.LINE85	Phases=3	Bus1=81.1.2.3	Bus2=86.1.2.3	LineCode=4c_185 		Length=1.4388	Units=m
New  Line.LINE86	Phases=3	Bus1=82.1.2.3	Bus2=87.1.2.3	LineCode=2c_007 		Length=0.3105	Units=m
New  Line.LINE87	Phases=3	Bus1=84.1.2.3	Bus2=88.1.2.3	LineCode=4c_70 		Length=1.0182	Units=m
New  Line.LINE88	Phases=3	Bus1=85.1.2.3	Bus2=89.1.2.3	LineCode=4c_70 		Length=0.1048	Units=m
New  Line.LINE89	Phases=3	Bus1=86.1.2.3	Bus2=90.1.2.3	LineCode=4c_185 		Length=0.3425	Units=m
New  Line.LINE90	Phases=3	Bus1=87.1.2.3	Bus2=91.1.2.3	LineCode=2c_007 		Length=0.1121	Units=m
New  Line.LINE91	Phases=3	Bus1=88.1.2.3	Bus2=92.1.2.3	LineCode=4c_70 		Length=0.9602	Units=m
New  Line.LINE92	Phases=3	Bus1=90.1.2.3	Bus2=93.1.2.3	LineCode=4c_185 		Length=0.0653	Units=m
New  Line.LINE93	Phases=3	Bus1=91.1.2.3	Bus2=94.1.2.3	LineCode=2c_007 		Length=0.0348	Units=m
New  Line.LINE94	Phases=3	Bus1=92.1.2.3	Bus2=95.1.2.3	LineCode=4c_70 		Length=0.5581	Units=m
New  Line.LINE95	Phases=3	Bus1=93.1.2.3	Bus2=96.1.2.3	LineCode=4c_185 		Length=0.0861	Units=m
New  Line.LINE96	Phases=3	Bus1=94.1.2.3	Bus2=97.1.2.3	LineCode=2c_007 		Length=0.0368	Units=m
New  Line.LINE97	Phases=3	Bus1=95.1.2.3	Bus2=98.1.2.3	LineCode=4c_70 		Length=0.3686	Units=m
New  Line.LINE98	Phases=3	Bus1=96.1.2.3	Bus2=99.1.2.3	LineCode=4c_185 		Length=0.0372	Units=m
New  Line.LINE99	Phases=3	Bus1=97.1.2.3	Bus2=100.1.2.3	LineCode=2c_007 		Length=0.0896	Units=m
New  Line.LINE100	Phases=3	Bus1=98.1.2.3	Bus2=101.1.2.3	LineCode=4c_70 		Length=0.5089	Units=m
New  Line.LINE101	Phases=3	Bus1=99.1.2.3	Bus2=102.1.2.3	LineCode=4c_185 		Length=5.0819	Units=m
New  Line.LINE102	Phases=3	Bus1=100.1.2.3	Bus2=103.1.2.3	LineCode=2c_007 		Length=0.2858	Units=m
New  Line.LINE103	Phases=3	Bus1=101.1.2.3	Bus2=104.1.2.3	LineCode=4c_35 		Length=0.2884	Units=m
New  Line.LINE104	Phases=3	Bus1=101.1.2.3	Bus2=105.1.2.3	LineCode=4c_70 		Length=0.3360	Units=m
New  Line.LINE105	Phases=3	Bus1=102.1.2.3	Bus2=106.1.2.3	LineCode=4c_185 		Length=0.2211	Units=m
New  Line.LINE106	Phases=3	Bus1=104.1.2.3	Bus2=107.1.2.3	LineCode=4c_35 		Length=0.3489	Units=m
New  Line.LINE107	Phases=3	Bus1=105.1.2.3	Bus2=108.1.2.3	LineCode=4c_70 		Length=0.1905	Units=m
New  Line.LINE108	Phases=3	Bus1=106.1.2.3	Bus2=109.1.2.3	LineCode=4c_185 		Length=0.4508	Units=m
New  Line.LINE109	Phases=3	Bus1=107.1.2.3	Bus2=110.1.2.3	LineCode=4c_35 		Length=0.4044	Units=m
New  Line.LINE110	Phases=3	Bus1=108.1.2.3	Bus2=111.1.2.3	LineCode=4c_70 		Length=7.5182	Units=m
New  Line.LINE111	Phases=3	Bus1=109.1.2.3	Bus2=112.1.2.3	LineCode=4c_185 		Length=11.9766	Units=m
New  Line.LINE112	Phases=3	Bus1=110.1.2.3	Bus2=113.1.2.3	LineCode=4c_35 		Length=0.6166	Units=m
New  Line.LINE113	Phases=3	Bus1=111.1.2.3	Bus2=114.1.2.3	LineCode=4c_70 		Length=0.7532	Units=m
New  Line.LINE114	Phases=3	Bus1=112.1.2.3	Bus2=115.1.2.3	LineCode=4c_185 		Length=10.6613	Units=m
New  Line.LINE115	Phases=3	Bus1=113.1.2.3	Bus2=116.1.2.3	LineCode=4c_35 		Length=0.7927	Units=m
New  Line.LINE116	Phases=3	Bus1=114.1.2.3	Bus2=117.1.2.3	LineCode=4c_35 		Length=1.1056	Units=m
New  Line.LINE117	Phases=3	Bus1=114.1.2.3	Bus2=118.1.2.3	LineCode=4c_1 		Length=3.6556	Units=m
New  Line.LINE118	Phases=3	Bus1=115.1.2.3	Bus2=119.1.2.3	LineCode=4c_185 		Length=0.9946	Units=m
New  Line.LINE119	Phases=3	Bus1=116.1.2.3	Bus2=120.1.2.3	LineCode=4c_35 		Length=0.5691	Units=m
New  Line.LINE120	Phases=3	Bus1=117.1.2.3	Bus2=121.1.2.3	LineCode=2c_007 		Length=0.1948	Units=m
New  Line.LINE121	Phases=3	Bus1=117.1.2.3	Bus2=122.1.2.3	LineCode=4c_35 		Length=0.5383	Units=m
New  Line.LINE122	Phases=3	Bus1=118.1.2.3	Bus2=123.1.2.3	LineCode=4c_1 		Length=6.5924	Units=m
New  Line.LINE123	Phases=3	Bus1=119.1.2.3	Bus2=124.1.2.3	LineCode=4c_185 		Length=0.7248	Units=m
New  Line.LINE124	Phases=3	Bus1=120.1.2.3	Bus2=125.1.2.3	LineCode=4c_35 		Length=0.8041	Units=m
New  Line.LINE125	Phases=3	Bus1=121.1.2.3	Bus2=126.1.2.3	LineCode=2c_007 		Length=0.1687	Units=m
New  Line.LINE126	Phases=3	Bus1=122.1.2.3	Bus2=127.1.2.3	LineCode=4c_35 		Length=2.5288	Units=m
New  Line.LINE127	Phases=3	Bus1=123.1.2.3	Bus2=128.1.2.3	LineCode=4c_1 		Length=2.9646	Units=m
New  Line.LINE128	Phases=3	Bus1=124.1.2.3	Bus2=129.1.2.3	LineCode=4c_185 		Length=0.6251	Units=m
New  Line.LINE129	Phases=3	Bus1=125.1.2.3	Bus2=130.1.2.3	LineCode=4c_35 		Length=0.8700	Units=m
New  Line.LINE130	Phases=3	Bus1=126.1.2.3	Bus2=131.1.2.3	LineCode=2c_007 		Length=0.1192	Units=m
New  Line.LINE131	Phases=3	Bus1=127.1.2.3	Bus2=132.1.2.3	LineCode=2c_16 		Length=3.8212	Units=m
New  Line.LINE132	Phases=3	Bus1=127.1.2.3	Bus2=133.1.2.3	LineCode=4c_35 		Length=7.1782	Units=m
New  Line.LINE133	Phases=3	Bus1=128.1.2.3	Bus2=134.1.2.3	LineCode=4c_1 		Length=0.8821	Units=m
New  Line.LINE134	Phases=3	Bus1=129.1.2.3	Bus2=135.1.2.3	LineCode=4c_185 		Length=1.9203	Units=m
New  Line.LINE135	Phases=3	Bus1=130.1.2.3	Bus2=136.1.2.3	LineCode=4c_35 		Length=0.8205	Units=m
New  Line.LINE136	Phases=3	Bus1=131.1.2.3	Bus2=137.1.2.3	LineCode=2c_007 		Length=0.1844	Units=m
New  Line.LINE137	Phases=3	Bus1=132.1.2.3	Bus2=138.1.2.3	LineCode=2c_16 		Length=0.3291	Units=m
New  Line.LINE138	Phases=3	Bus1=133.1.2.3	Bus2=139.1.2.3	LineCode=4c_35 		Length=5.3402	Units=m
New  Line.LINE139	Phases=3	Bus1=134.1.2.3	Bus2=140.1.2.3	LineCode=4c_1 		Length=0.9957	Units=m
New  Line.LINE140	Phases=3	Bus1=135.1.2.3	Bus2=141.1.2.3	LineCode=4c_185 		Length=1.4127	Units=m
New  Line.LINE141	Phases=3	Bus1=136.1.2.3	Bus2=142.1.2.3	LineCode=4c_35 		Length=1.3490	Units=m
New  Line.LINE142	Phases=3	Bus1=137.1.2.3	Bus2=143.1.2.3	LineCode=2c_007 		Length=0.2178	Units=m
New  Line.LINE143	Phases=3	Bus1=138.1.2.3	Bus2=144.1.2.3	LineCode=2c_16 		Length=0.3229	Units=m
New  Line.LINE144	Phases=3	Bus1=139.1.2.3	Bus2=145.1.2.3	LineCode=4c_35 		Length=3.5762	Units=m
New  Line.LINE145	Phases=3	Bus1=140.1.2.3	Bus2=146.1.2.3	LineCode=4c_1 		Length=0.9364	Units=m
New  Line.LINE146	Phases=3	Bus1=141.1.2.3	Bus2=147.1.2.3	LineCode=4c_185 		Length=0.2405	Units=m
New  Line.LINE147	Phases=3	Bus1=142.1.2.3	Bus2=148.1.2.3	LineCode=4c_35 		Length=6.4142	Units=m
New  Line.LINE148	Phases=3	Bus1=143.1.2.3	Bus2=149.1.2.3	LineCode=2c_007 		Length=0.1940	Units=m
New  Line.LINE149	Phases=3	Bus1=144.1.2.3	Bus2=150.1.2.3	LineCode=2c_16 		Length=0.2607	Units=m
New  Line.LINE150	Phases=3	Bus1=145.1.2.3	Bus2=151.1.2.3	LineCode=4c_35 		Length=3.5713	Units=m
New  Line.LINE151	Phases=3	Bus1=145.1.2.3	Bus2=152.1.2.3	LineCode=2c_16 		Length=5.1314	Units=m
New  Line.LINE152	Phases=3	Bus1=146.1.2.3	Bus2=153.1.2.3	LineCode=4c_1 		Length=1.0926	Units=m
New  Line.LINE153	Phases=3	Bus1=147.1.2.3	Bus2=154.1.2.3	LineCode=4c_185 		Length=0.0831	Units=m
New  Line.LINE154	Phases=3	Bus1=148.1.2.3	Bus2=155.1.2.3	LineCode=4c_35 		Length=1.3973	Units=m
New  Line.LINE155	Phases=3	Bus1=149.1.2.3	Bus2=156.1.2.3	LineCode=2c_007 		Length=0.2191	Units=m
New  Line.LINE156	Phases=3	Bus1=150.1.2.3	Bus2=157.1.2.3	LineCode=2c_16 		Length=0.3913	Units=m
New  Line.LINE157	Phases=3	Bus1=151.1.2.3	Bus2=158.1.2.3	LineCode=4c_35 		Length=9.4713	Units=m
New  Line.LINE158	Phases=3	Bus1=152.1.2.3	Bus2=159.1.2.3	LineCode=2c_16 		Length=0.3123	Units=m
New  Line.LINE159	Phases=3	Bus1=153.1.2.3	Bus2=160.1.2.3	LineCode=4c_1 		Length=0.3144	Units=m
New  Line.LINE160	Phases=3	Bus1=154.1.2.3	Bus2=161.1.2.3	LineCode=4c_185 		Length=0.1226	Units=m
New  Line.LINE161	Phases=3	Bus1=155.1.2.3	Bus2=162.1.2.3	LineCode=2c_16 		Length=11.7422	Units=m
New  Line.LINE162	Phases=3	Bus1=155.1.2.3	Bus2=163.1.2.3	LineCode=4c_35 		Length=5.2844	Units=m
New  Line.LINE163	Phases=3	Bus1=156.1.2.3	Bus2=164.1.2.3	LineCode=2c_007 		Length=0.2034	Units=m
New  Line.LINE164	Phases=3	Bus1=157.1.2.3	Bus2=165.1.2.3	LineCode=2c_16 		Length=0.4718	Units=m
New  Line.LINE165	Phases=3	Bus1=158.1.2.3	Bus2=166.1.2.3	LineCode=4c_35 		Length=3.2899	Units=m
New  Line.LINE166	Phases=3	Bus1=159.1.2.3	Bus2=167.1.2.3	LineCode=2c_16 		Length=0.2853	Units=m
New  Line.LINE167	Phases=3	Bus1=160.1.2.3	Bus2=168.1.2.3	LineCode=4c_1 		Length=1.7861	Units=m
New  Line.LINE168	Phases=3	Bus1=161.1.2.3	Bus2=169.1.2.3	LineCode=4c_185 		Length=0.2496	Units=m
New  Line.LINE169	Phases=3	Bus1=162.1.2.3	Bus2=170.1.2.3	LineCode=2c_16 		Length=2.2183	Units=m
New  Line.LINE170	Phases=3	Bus1=163.1.2.3	Bus2=171.1.2.3	LineCode=4c_35 		Length=7.0156	Units=m
New  Line.LINE171	Phases=3	Bus1=164.1.2.3	Bus2=172.1.2.3	LineCode=2c_007 		Length=0.1727	Units=m
New  Line.LINE172	Phases=3	Bus1=165.1.2.3	Bus2=173.1.2.3	LineCode=2c_16 		Length=0.3564	Units=m
New  Line.LINE173	Phases=3	Bus1=166.1.2.3	Bus2=174.1.2.3	LineCode=4c_35 		Length=3.9183	Units=m
New  Line.LINE174	Phases=3	Bus1=166.1.2.3	Bus2=175.1.2.3	LineCode=2c_16 		Length=4.2045	Units=m
New  Line.LINE175	Phases=3	Bus1=167.1.2.3	Bus2=176.1.2.3	LineCode=2c_16 		Length=0.1185	Units=m
New  Line.LINE176	Phases=3	Bus1=168.1.2.3	Bus2=177.1.2.3	LineCode=4c_1 		Length=1.0088	Units=m
New  Line.LINE177	Phases=3	Bus1=170.1.2.3	Bus2=178.1.2.3	LineCode=2c_16 		Length=4.5768	Units=m
New  Line.LINE178	Phases=3	Bus1=171.1.2.3	Bus2=179.1.2.3	LineCode=4c_35 		Length=1.1818	Units=m
New  Line.LINE179	Phases=3	Bus1=171.1.2.3	Bus2=180.1.2.3	LineCode=2c_16 		Length=2.4224	Units=m
New  Line.LINE180	Phases=3	Bus1=172.1.2.3	Bus2=181.1.2.3	LineCode=2c_007 		Length=0.1796	Units=m
New  Line.LINE181	Phases=3	Bus1=173.1.2.3	Bus2=182.1.2.3	LineCode=2c_16 		Length=0.4124	Units=m
New  Line.LINE182	Phases=3	Bus1=174.1.2.3	Bus2=183.1.2.3	LineCode=4c_35 		Length=0.5876	Units=m
New  Line.LINE183	Phases=3	Bus1=175.1.2.3	Bus2=184.1.2.3	LineCode=2c_16 		Length=0.4541	Units=m
New  Line.LINE184	Phases=3	Bus1=176.1.2.3	Bus2=185.1.2.3	LineCode=2c_16 		Length=0.2555	Units=m
New  Line.LINE185	Phases=3	Bus1=177.1.2.3	Bus2=186.1.2.3	LineCode=4c_1 		Length=0.7489	Units=m
New  Line.LINE186	Phases=3	Bus1=179.1.2.3	Bus2=187.1.2.3	LineCode=4c_35 		Length=4.6507	Units=m
New  Line.LINE187	Phases=3	Bus1=180.1.2.3	Bus2=188.1.2.3	LineCode=2c_16 		Length=10.0258	Units=m
New  Line.LINE188	Phases=3	Bus1=181.1.2.3	Bus2=189.1.2.3	LineCode=2c_007 		Length=0.1541	Units=m
New  Line.LINE189	Phases=3	Bus1=182.1.2.3	Bus2=190.1.2.3	LineCode=2c_16 		Length=0.3878	Units=m
New  Line.LINE190	Phases=3	Bus1=183.1.2.3	Bus2=191.1.2.3	LineCode=4c_35 		Length=2.3151	Units=m
New  Line.LINE191	Phases=3	Bus1=183.1.2.3	Bus2=192.1.2.3	LineCode=4c_35 		Length=0.2779	Units=m
New  Line.LINE192	Phases=3	Bus1=184.1.2.3	Bus2=193.1.2.3	LineCode=2c_16 		Length=0.4392	Units=m
New  Line.LINE193	Phases=3	Bus1=185.1.2.3	Bus2=194.1.2.3	LineCode=2c_16 		Length=0.6507	Units=m
New  Line.LINE194	Phases=3	Bus1=186.1.2.3	Bus2=195.1.2.3	LineCode=4c_1 		Length=0.6733	Units=m
New  Line.LINE195	Phases=3	Bus1=187.1.2.3	Bus2=196.1.2.3	LineCode=4c_35 		Length=8.3036	Units=m
New  Line.LINE196	Phases=3	Bus1=188.1.2.3	Bus2=197.1.2.3	LineCode=2c_16 		Length=1.9595	Units=m
New  Line.LINE197	Phases=3	Bus1=188.1.2.3	Bus2=198.1.2.3	LineCode=2c_16 		Length=1.1325	Units=m
New  Line.LINE198	Phases=3	Bus1=189.1.2.3	Bus2=199.1.2.3	LineCode=2c_007 		Length=0.1915	Units=m
New  Line.LINE199	Phases=3	Bus1=190.1.2.3	Bus2=200.1.2.3	LineCode=2c_16 		Length=0.4173	Units=m
New  Line.LINE200	Phases=3	Bus1=191.1.2.3	Bus2=201.1.2.3	LineCode=4c_35 		Length=0.9314	Units=m
...
