Base Experiment/EuropeanTestLoads.dss
New  Load.USER1 		Bus1=34.1	Phases=1	Conn=wye	Model=1 		kV=0.23 		kW=1.00 		PF=0.95 	Vmaxpu=1.15		Vminpu=0.90
New  Load.USER2 		Bus1=47.2	Phases=1	Conn=wye	Model=1 		kV=0.23 		kW=1.00 		PF=0.95 	Vmaxpu=1.15		Vminpu=0.90
New  Load.USER3 		Bus1=70.1	Phases=1	Conn=wye	Model=1 		kV=0.23 		kW=1.00 		PF=0.95 	Vmaxpu=1.15		Vminpu=0.90
New  Load.USER4 		Bus1=73.1	Phases=1	Conn=wye	Model=1 		kV=0.23 		kW=1.00 		PF=0.95 	Vmaxpu=1.15		Vminpu=0.90
New  Load.USER5 		Bus1=74.1	Phases=1	Conn=wye	Model=1 		kV=0.23 		kW=1.00 		PF=0.95 	Vmaxpu=1.15		Vminpu=0.90
New  Load.USER6 		Bus1=83.2	Phases=1	Conn=wye	Model=1 		kV=0.23 		kW=1.00 		PF=0.95 	Vmaxpu=1.15		Vminpu=0.90
New  Load.USER7 		Bus1=178.2	Phases=1	Conn=wye	Model=1 		kV=0.23 		kW=1.00 		PF=0.95 	Vmaxpu=1.15		Vminpu=0.90
New  Load.USER8 		Bus1=208.3	Phases=1	Conn=wye	Model=1 		kV=0.23 		kW=1.00 		PF=0.95 	Vmaxpu=1.15		Vminpu=0.90
New  Load.USER9 		Bus1=225.1	Phases=1	Conn=wye	Model=1 		kV=0.23 		kW=1.00 		PF=0.95 	Vmaxpu=1.15		Vminpu=0.90
New  Load.USER10 		Bus1=248.2	Phases=1	Conn=wye	Model=1 		kV=0.23 		kW=1.00 		PF=0.95 	Vmaxpu=1.15		Vminpu=0.90
New  Load.USER11 		Bus1=249.2	Phases=1	Conn=wye	Model=1 		kV=0.23 		kW=1.00 		PF=0.95 	Vmaxpu=1.15		Vminpu=0.90
New  Load.USER12 		Bus1=264.3	Phases=1	Conn=wye	Model=1 		kV=0.23 		kW=1.00 		PF=0.95 	Vmaxpu=1.15		Vminpu=0.90
New  Load.USER13 		Bus1=276.2	Phases=1	Conn=wye	Model=1 		kV=0.23 		kW=1.00 		PF=0.95 	Vmaxpu=1.15		Vminpu=0.90
New  Load.USER14 		Bus1=289.1	Phases=1	Conn=wye	Model=1 		kV=0.23 		kW=1.00 		PF=0.95 	Vmaxpu=1.15		Vminpu=0.90
New  Load.USER15 		Bus1=314.2	Phases=1	Conn=wye	Model=1 		kV=0.23 		kW=1.00 		PF=0.95 	Vmaxpu=1.15		Vminpu=0.90
New  Load.USER16 		Bus1=320.3	Phases=1	Conn=wye	Model=1 		kV=0.23 		kW=1.00 		PF=0.95 	Vmaxpu=1.15		Vminpu=0.90
New  Load.USER17 		Bus1=327.3	Phases=1	Conn=wye	Model=1 		kV=0.23 		kW=1.00 		PF=0.95 	Vmaxpu=1.15		Vminpu=0.90
New  Load.USER18 		Bus1=337.3	Phases=1	Conn=wye	Model=1 		kV=0.23 		kW=1.00 		PF=0.95 	Vmaxpu=1.15		Vminpu=0.90
New  Load.USER19 		Bus1=342.3	Phases=1	Conn=wye	Model=1 		kV=0.23 		kW=1.00 		PF=0.95 	Vmaxpu=1.15		Vminpu=0.90
New  Load.USER20 		Bus1=349.1	Phases=1	Conn=wye	Model=1 		kV=0.23 		kW=1.00 		PF=0.95 	Vmaxpu=1.15		Vminpu=0.90
New  Load.USER21 		Bus1=387.1	Phases=1	Conn=wye	Model=1 		kV=0.23 		kW=1.00 		PF=0.95 	Vmaxpu=1.15		Vminpu=0.90
New  Load.USER22 		Bus1=388.1	Phases=1	Conn=wye	Model=1 		kV=0.23 		kW=1.00 		PF=0.95 	Vmaxpu=1.15		Vminpu=0.90
New  Load.USER23 		Bus1=406.2	Phases=1	Conn=wye	Model=1 		kV=0.23 		kW=1.00 		PF=0.95 	Vmaxpu=1.15		Vminpu=0.90
New  Load.USER24 		Bus1=458.3	Phases=1	Conn=wye	Model=1 		kV=0.23 		kW=1.00 		PF=0.95 	Vmaxpu=1.15		Vminpu=0.90
New  Load.USER25 		Bus1=502.1	Phases=1	Conn=wye	Model=1 		kV=0.23 		kW=1.00 		PF=0.95 	Vmaxpu=1.15		Vminpu=0.90
New  Load.USER26 		Bus1=522.2	Phases=1	Conn=wye	Model=1 		kV=0.23 		kW=1.00 		PF=0.95 	Vmaxpu=1.15		Vminpu=0.90
New  Load.USER27 		Bus1=539.3	Phases=1	Conn=wye	Model=1 		kV=0.23 		kW=1.00 		PF=0.95 	Vmaxpu=1.15		Vminpu=0.90
New  Load.USER28 		Bus1=556.3	Phases=1	Conn=wye	Model=1 		kV=0.23 		kW=1.00 		PF=0.95 	Vmaxpu=1.15		Vminpu=0.90
New  Load.USER29 		Bus1=562.1	Phases=1	Conn=wye	Model=1 		kV=0.23 		kW=1.00 		PF=0.95 	Vmaxpu=1.15		Vminpu=0.90
New  Load.USER30 		Bus1=563.1	Phases=1	Conn=wye	Model=1 		kV=0.23 		kW=1.00 		PF=0.95 	Vmaxpu=1.15		Vminpu=0.90
New  Load.USER31 		Bus1=611.1	Phases=1	Conn=wye	Model=1 		kV=0.23 		kW=1.00 		PF=0.95 	Vmaxpu=1.15		Vminpu=0.90
New  Load.USER32 		Bus1=614.3	Phases=1	Conn=wye	Model=1 		kV=0.23 		kW=1.00 		PF=0.95 	Vmaxpu=1.15		Vminpu=0.90
New  Load.USER33 		Bus1=619.3	Phases=1	Conn=wye	Model=1 		kV=0.23 		kW=1.00 		PF=0.95 	Vmaxpu=1.15		Vminpu=0.90
New  Load.USER34 		Bus1=629.1	Phases=1	Conn=wye	Model=1 		kV=0.23 		kW=1.00 		PF=0.95 	Vmaxpu=1.15		Vminpu=0.90
New  Load.USER35 		Bus1=639.2	Phases=1	Conn=wye	Model=1 		kV=0.23 		kW=1.00 		PF=0.95 	Vmaxpu=1.15		Vminpu=0.90
New  Load.USER36 		Bus1=676.2	Phases=1	Conn=wye	Model=1 		kV=0.23 		kW=1.00 		PF=0.95 	Vmaxpu=1.15		Vminpu=0.90
New  Load.USER37 		Bus1=682.2	Phases=1	Conn=wye	Model=1 		kV=0.23 		kW=1.00 		PF=0.95 	Vmaxpu=1.15		Vminpu=0.90
New  Load.USER38 		Bus1=688.2	Phases=1	Conn=wye	Model=1 		kV=0.23 		kW=1.00 		PF=0.95 	Vmaxpu=1.15		Vminpu=0.90
New  Load.USER39 		Bus1=701.3	Phases=1	Conn=wye	Model=1 		kV=0.23 		kW=1.00 		PF=0.95 	Vmaxpu=1.15		Vminpu=0.90
New  Load.USER40 		Bus1=702.2	Phases=1	Conn=wye	Model=1 		kV=0.23 		kW=1.00 		PF=0.95 	Vmaxpu=1.15		Vminpu=0.90
New  Load.USER41 		Bus1=755.2	Phases=1	Conn=wye	Model=1 		kV=0.23 		kW=1.00 		PF=0.95 	Vmaxpu=1.15		Vminpu=0.90
New  Load.USER42 		Bus1=778.3	Phases=1	Conn=wye	Model=1 		kV=0.23 		kW=1.00 		PF=0.95 	Vmaxpu=1.15		Vminpu=0.90
New  Load.USER43 		Bus1=780.3	Phases=1	Conn=wye	Model=1 		kV=0.23 		kW=1.00 		PF=0.95 	Vmaxpu=1.15		Vminpu=0.90
New  Load.USER44 		Bus1=785.2	Phases=1	Conn=wye	Model=1 		kV=0.23 		kW=1.00 		PF=0.95 	Vmaxpu=1.15		Vminpu=0.90
New  Load.USER45 		Bus1=813.2	Phases=1	Conn=wye	Model=1 		kV=0.23 		kW=1.00 		PF=0.95 	Vmaxpu=1.15		Vminpu=0.90
New  Load.USER46 		Bus1=817.1	Phases=1	Conn=wye	Model=1 		kV=0.23 		kW=1.00 		PF=0.95 	Vmaxpu=1.15		Vminpu=0.90
New  Load.USER47 		Bus1=835.3	Phases=1	Conn=wye	Model=1 		kV=0.23 		kW=1.00 		PF=0.95 	Vmaxpu=1.15		Vminpu=0.90
New  Load.USER48 		Bus1=860.1	Phases=1	Conn=wye	Model=1 		kV=0.23 		kW=1.00 		PF=0.95 	Vmaxpu=1.15		Vminpu=0.90
New  Load.USER49 		Bus1=861.1	Phases=1	Conn=wye	Model=1 		kV=0.23 		kW=1.00 		PF=0.95 	Vmaxpu=1.15		Vminpu=0.90
New  Load.USER50 		Bus1=886.2	Phases=1	Conn=wye	Model=1 		kV=0.23 		kW=1.00 		PF=0.95 	Vmaxpu=1.15		Vminpu=0.90
New  Load.USER51 		Bus1=896.1	Phases=1	Conn=wye	Model=1 		kV=0.23 		kW=1.00 		PF=0.95 	Vmaxpu=1.15		Vminpu=0.90
New  Load.USER52 		Bus1=898.1	Phases=1	Conn=wye	Model=1 		kV=0.23 		kW=1.00 		PF=0.95 	Vmaxpu=1.15		Vminpu=0.90
New  Load.USER53 		Bus1=899.2	Phases=1	Conn=wye	Model=1 		kV=0.23 		kW=1.00 		PF=0.95 	Vmaxpu=1.15		Vminpu=0.90
New  Load.USER54 		Bus1=900.1	Phases=1	Conn=wye	Model=1 		kV=0.23 		kW=1.00 		PF=0.95 	Vmaxpu=1.15		Vminpu=0.90
New  Load.USER55 		Bus1=906.1	Phases=1	Conn=wye	Model=1 		kV=0.23 		kW=1.00 		PF=0.95 	Vmaxpu=1.15		Vminpu=0.90
